ipss.plugin.3phase/testData/feeder/IEEE8500/IEEE8500_VLN_Node.txt

LINE-GROUND and LINE-LINE VOLTAGES BY BUS & NODE

Bus  Node    VLN (kV)   Angle      pu     Base kV    Node-Node   VLL (kV)  Angle      pu

SOURCEBUS .......... 1       69.715 /_    0.0      1.05   115.000        1-2     120.75 /_   30.0      1.05
   -                 2       69.715 /_ -120.0      1.05   115.000        2-3     120.75 /_  -90.0      1.05
   -                 3       69.715 /_  120.0      1.05   115.000        3-1     120.75 /_  150.0      1.05
_HVMV_SUB_LSB ...... 1       7.5543 /_  -34.4    1.0493    12.470        1-2     13.062 /_   -4.4    1.0474
   -                 2       7.5434 /_ -154.2    1.0478    12.470        2-3     13.069 /_ -124.1     1.048
   -                 3        7.562 /_   86.0    1.0503    12.470        3-1     13.117 /_  115.7    1.0519
HVMV_SUB_48332 ..... 1       7.5543 /_  -34.4    1.0493    12.470        1-2     13.062 /_   -4.4    1.0474
   -                 2       7.5434 /_ -154.2    1.0478    12.470        2-3     13.069 /_ -124.1     1.048
   -                 3        7.562 /_   86.0    1.0503    12.470        3-1     13.117 /_  115.7    1.0519
M1009763 ........... 1       7.1961 /_  -44.9   0.99952    12.470        1-2     12.673 /_  -15.8    1.0163
   -                 2         7.28 /_ -167.1    1.0112    12.470        2-3     12.281 /_ -133.4   0.98484
   -                 3       7.4187 /_   79.6    1.0304    12.470        3-1     12.933 /_  106.9    1.0371
L2673322 ........... 2       7.2799 /_ -167.1    1.0112    12.470
M1069148 ........... 3       7.4204 /_   80.5    1.0307    12.470
L2673309 ........... 3       7.4201 /_   80.5    1.0306    12.470
M1069588 ........... 2       7.2746 /_ -165.3    1.0104    12.470
L2804270 ........... 2       7.2746 /_ -165.3    1.0104    12.470
M3036164 ........... 2       7.1484 /_ -166.9   0.99289    12.470
L2935553 ........... 2       7.1469 /_ -166.9   0.99269    12.470
M1209749 ........... 2       7.3844 /_ -156.5    1.0257    12.470
L2748840 ........... 2       7.3842 /_ -156.5    1.0256    12.470
M1108264 ........... 2       7.4335 /_ -160.4    1.0325    12.470
M1108263 ........... 2       7.4331 /_ -160.4    1.0324    12.470
L3085398 ........... 1       7.2428 /_  -44.9     1.006    12.470        1-2     12.748 /_  -15.8    1.0223
   -                 2       7.3238 /_ -167.0    1.0173    12.470        2-3     12.333 /_ -133.4   0.98905
   -                 3       7.4298 /_   79.6     1.032    12.470        3-1     12.982 /_  107.0    1.0411
M1026891 ........... 1       7.2395 /_  -44.9    1.0055    12.470        1-2      12.74 /_  -15.8    1.0217
   -                 2       7.3175 /_ -167.0    1.0164    12.470        2-3     12.327 /_ -133.4   0.98851
   -                 3       7.4287 /_   79.6    1.0318    12.470        3-1     12.978 /_  107.0    1.0407
L3216367 ........... 1       7.3131 /_  -44.4    1.0158    12.470        1-2     12.783 /_  -15.5    1.0251
   -                 2       7.2865 /_ -166.6    1.0121    12.470        2-3       12.3 /_ -133.5   0.98638
   -                 3       7.3673 /_   79.3    1.0233    12.470        3-1      12.94 /_  107.3    1.0377
M1069468 ........... 1       7.3124 /_  -44.4    1.0157    12.470        1-2     12.781 /_  -15.5    1.0249
   -                 2       7.2843 /_ -166.6    1.0118    12.470        2-3     12.298 /_ -133.5   0.98618
   -                 3       7.3665 /_   79.3    1.0232    12.470        3-1     12.938 /_  107.3    1.0375
M1142800 ........... 2       7.2098 /_ -159.0    1.0014    12.470
M1142799 ........... 2       7.2097 /_ -159.0    1.0014    12.470
M1047592 ........... 1       7.3619 /_  -44.5    1.0225    12.470        1-2     12.913 /_  -15.4    1.0355
   -                 2       7.4035 /_ -166.5    1.0283    12.470        2-3     12.458 /_ -133.3   0.99904
   -                 3       7.4626 /_   79.6    1.0365    12.470        3-1     13.099 /_  107.4    1.0505
P827512 ............ 3       7.4626 /_   79.6    1.0365    12.470
M1047339 ........... 1       7.2726 /_  -40.8    1.0101    12.470        1-2     12.615 /_  -11.3    1.0116
   -                 2       7.2318 /_ -161.6    1.0045    12.470        2-3     12.594 /_ -130.4      1.01
   -                 3       7.4245 /_   79.9    1.0312    12.470        3-1     12.772 /_  109.2    1.0242
P895104 ............ 1       7.2726 /_  -40.8    1.0101    12.470
M1026915 ........... 1       7.2412 /_  -44.9    1.0058    12.470        1-2     12.748 /_  -15.8    1.0223
   -                 2       7.3261 /_ -167.0    1.0176    12.470        2-3     12.335 /_ -133.5   0.98915
   -                 3       7.4288 /_   79.6    1.0318    12.470        3-1      12.98 /_  107.0    1.0409
M1026920 ........... 1       7.2391 /_  -44.9    1.0055    12.470        1-2     12.745 /_  -15.8    1.0221
   -                 2       7.3251 /_ -167.0    1.0174    12.470        2-3     12.333 /_ -133.5   0.98901
   -                 3       7.4278 /_   79.6    1.0317    12.470        3-1     12.978 /_  106.9    1.0407
N1138596 ........... 1       7.2943 /_  -44.3    1.0132    12.470
L3254207 ........... 1       7.2938 /_  -44.3    1.0131    12.470
M1069464 ........... 1       7.3114 /_  -44.4    1.0155    12.470        1-2     12.777 /_  -15.6    1.0247
   -                 2       7.2803 /_ -166.6    1.0112    12.470        2-3     12.293 /_ -133.5   0.98582
   -                 3       7.3652 /_   79.2     1.023    12.470        3-1     12.935 /_  107.3    1.0373
P873787 ............ 2       7.2803 /_ -166.6    1.0112    12.470
N1144665 ........... 1       7.3872 /_  -44.3    1.0261    12.470        1-2     12.943 /_  -15.2    1.0379
   -                 2       7.4167 /_ -166.3    1.0302    12.470        2-3     12.475 /_ -133.2    1.0004
   -                 3       7.4547 /_   79.7    1.0354    12.470        3-1     13.107 /_  107.5    1.0511
M1047515 ........... 1       7.3819 /_  -44.3    1.0253    12.470        1-2     12.935 /_  -15.2    1.0373
   -                 2       7.4128 /_ -166.3    1.0296    12.470        2-3     12.468 /_ -133.2   0.99982
   -                 3       7.4501 /_   79.7    1.0348    12.470        3-1     13.099 /_  107.5    1.0504
N1137002 ........... 1       7.3531 /_  -44.3    1.0213    12.470
M1047707 ........... 1       7.3527 /_  -44.3    1.0213    12.470
L2729406 ........... 3       7.2653 /_   81.3    1.0091    12.470
L2897768 ........... 3       7.2648 /_   81.3    1.0091    12.470
L3649301 ........... 1       7.3303 /_  -44.6    1.0182    12.470
L3649302 ........... 1       7.3299 /_  -44.6    1.0181    12.470
L2970842 ........... 2       7.4558 /_ -160.4    1.0356    12.470
M1089113 ........... 2       7.4544 /_ -160.4    1.0354    12.470
M1047312 ........... 1       7.2387 /_  -40.8    1.0054    12.470        1-2     12.558 /_  -11.3     1.007
   -                 2       7.1958 /_ -161.7   0.99948    12.470        2-3     12.551 /_ -130.4    1.0065
   -                 3       7.4153 /_   79.9      1.03    12.470        3-1     12.735 /_  109.2    1.0212
P893163 ............ 1       7.2386 /_  -40.8    1.0054    12.470
L2822871 ........... 1       7.2751 /_  -44.8    1.0105    12.470        1-2       12.8 /_  -15.6    1.0265
   -                 2       7.3608 /_ -166.8    1.0224    12.470        2-3     12.381 /_ -133.4   0.99287
   -                 3       7.4392 /_   79.6    1.0333    12.470        3-1      13.02 /_  107.1    1.0441
M1026872 ........... 1       7.2724 /_  -44.8    1.0101    12.470        1-2     12.796 /_  -15.6    1.0261
   -                 2        7.358 /_ -166.8     1.022    12.470        2-3     12.377 /_ -133.4   0.99257
   -                 3       7.4383 /_   79.6    1.0332    12.470        3-1     13.017 /_  107.1    1.0438
M1026312 ........... 2        7.043 /_ -162.0   0.97826    12.470
L2973163 ........... 2       7.0403 /_ -162.0   0.97788    12.470
L3728038 ........... 1       7.3193 /_  -44.4    1.0166    12.470
L3728039 ........... 1       7.3188 /_  -44.4    1.0166    12.470
M1069567 ........... 2       7.2875 /_ -165.3    1.0122    12.470
M1069582 ........... 2       7.2784 /_ -165.3     1.011    12.470
N1140830 ........... 1       7.1831 /_  -44.7   0.99771    12.470
L3216351 ........... 1        7.183 /_  -44.7    0.9977    12.470
L2952007 ........... 3       7.3818 /_   84.8    1.0253    12.470
L2861158 ........... 3       7.3815 /_   84.8    1.0253    12.470
N1140827 ........... 1       7.1884 /_  -44.6   0.99845    12.470        1-2     12.708 /_  -15.0    1.0191
   -                 2       7.3717 /_ -166.2    1.0239    12.470        2-3     12.322 /_ -133.3   0.98817
   -                 3       7.3213 /_   79.8    1.0169    12.470        3-1     12.837 /_  107.3    1.0295
M1026726 ........... 1       7.1883 /_  -44.6   0.99844    12.470        1-2     12.708 /_  -15.0    1.0191
   -                 2       7.3715 /_ -166.2    1.0239    12.470        2-3     12.322 /_ -133.3   0.98815
   -                 3       7.3212 /_   79.8    1.0169    12.470        3-1     12.837 /_  107.3    1.0294
L2730106 ........... 1       6.8313 /_  -41.0   0.94886    12.470        1-2     12.097 /_  -11.0   0.97006
   -                 2       7.0623 /_ -162.0   0.98093    12.470        2-3     12.345 /_ -129.3   0.98998
   -                 3       7.4589 /_   81.5     1.036    12.470        3-1     12.533 /_  108.9     1.005
N1142099 ........... 1       6.8287 /_  -41.0   0.94849    12.470        1-2     12.094 /_  -11.0   0.96981
   -                 2        7.061 /_ -162.1   0.98076    12.470        2-3     12.343 /_ -129.3    0.9898
   -                 3       7.4589 /_   81.5     1.036    12.470        3-1     12.531 /_  108.9    1.0049
M1026658 ........... 1       7.1813 /_  -44.7   0.99746    12.470        1-2     12.699 /_  -15.0    1.0184
   -                 2       7.3733 /_ -166.2    1.0241    12.470        2-3     12.315 /_ -133.4   0.98753
   -                 3       7.3069 /_   79.8    1.0149    12.470        3-1      12.82 /_  107.3     1.028
L3172805 ........... 1       7.1811 /_  -44.7   0.99744    12.470
P895112 ............ 1       7.1279 /_  -38.7   0.99005    12.470
L3048962 ........... 1       7.1278 /_  -38.7   0.99004    12.470
L2991914 ........... 1       7.3345 /_  -44.4    1.0187    12.470        1-2     12.867 /_  -15.2    1.0318
   -                 2       7.3859 /_ -166.3    1.0259    12.470        2-3     12.413 /_ -133.2   0.99543
   -                 3       7.4116 /_   79.7    1.0295    12.470        3-1     13.025 /_  107.5    1.0445
M1047503 ........... 1       7.3308 /_  -44.4    1.0182    12.470        1-2     12.863 /_  -15.2    1.0315
   -                 2       7.3856 /_ -166.3    1.0258    12.470        2-3     12.411 /_ -133.2   0.99525
   -                 3       7.4093 /_   79.7    1.0291    12.470        3-1     13.021 /_  107.5    1.0442
M1047751 ........... 1       7.3098 /_  -44.1    1.0153    12.470
L2973154 ........... 1       7.3098 /_  -44.1    1.0153    12.470
L3010565 ........... 3       7.4172 /_   80.4    1.0302    12.470
L2897775 ........... 3        7.417 /_   80.4    1.0302    12.470
M1125955 ........... 3        7.461 /_   82.1    1.0363    12.470
M1125957 ........... 3       7.4609 /_   82.1    1.0363    12.470
M1069640 ........... 2       7.2512 /_ -165.3    1.0072    12.470
L2804269 ........... 2       7.2504 /_ -165.3    1.0071    12.470
M1026702 ........... 1       7.2123 /_  -44.6    1.0018    12.470        1-2     12.735 /_  -15.1    1.0213
   -                 2       7.3754 /_ -166.2    1.0244    12.470        2-3     12.341 /_ -133.3   0.98965
   -                 3         7.34 /_   79.8    1.0195    12.470        3-1     12.872 /_  107.3    1.0322
N1139551 ........... 1        7.201 /_  -44.6    1.0002    12.470        1-2     12.724 /_  -15.0    1.0203
   -                 2       7.3749 /_ -166.2    1.0243    12.470        2-3     12.335 /_ -133.3   0.98915
   -                 3       7.3335 /_   79.8    1.0186    12.470        3-1     12.858 /_  107.3    1.0311
N1136355 ........... 2       7.3279 /_ -165.2    1.0178    12.470
L2783231 ........... 2       7.3206 /_ -165.2    1.0168    12.470
L2748143 ........... 1       7.2306 /_  -43.1    1.0043    12.470
L3251854 ........... 1       7.2305 /_  -43.1    1.0043    12.470
M1069610 ........... 2       7.2621 /_ -165.3    1.0087    12.470
M1069600 ........... 2        7.262 /_ -165.3    1.0087    12.470
M1069424 ........... 1       7.3033 /_  -44.3    1.0144    12.470        1-2     12.752 /_  -15.7    1.0226
   -                 2       7.2498 /_ -166.7     1.007    12.470        2-3     12.259 /_ -133.5    0.9831
   -                 3       7.3549 /_   79.1    1.0216    12.470        3-1      12.91 /_  107.3    1.0353
L2935549 ........... 1       7.3022 /_  -44.3    1.0143    12.470        1-2     12.749 /_  -15.7    1.0223
   -                 2       7.2456 /_ -166.7    1.0064    12.470        2-3     12.255 /_ -133.5   0.98273
   -                 3       7.3537 /_   79.1    1.0214    12.470        3-1     12.907 /_  107.3     1.035
P895089 ............ 3       7.5086 /_   80.6    1.0429    12.470
L3235242 ........... 3       7.5084 /_   80.6    1.0429    12.470
M1026795 ........... 1       7.2952 /_  -44.5    1.0133    12.470        1-2     12.824 /_  -15.2    1.0284
   -                 2       7.3829 /_ -166.2    1.0255    12.470        2-3     12.389 /_ -133.2   0.99353
   -                 3       7.3872 /_   79.7    1.0261    12.470        3-1     12.975 /_  107.4    1.0405
N1140522 ........... 3       7.3872 /_   79.7    1.0261    12.470
L3030199 ........... 1       7.1729 /_  -38.7    0.9963    12.470        1-2     12.477 /_   -8.8    1.0006
   -                 2       7.2112 /_ -159.0    1.0016    12.470        2-3     12.619 /_ -127.9     1.012
   -                 3       7.4454 /_   82.1    1.0341    12.470        3-1     12.713 /_  111.1    1.0195
M1125934 ........... 1       7.1729 /_  -38.7    0.9963    12.470        1-2     12.477 /_   -8.8    1.0005
   -                 2       7.2103 /_ -159.0    1.0015    12.470        2-3     12.618 /_ -127.9    1.0119
   -                 3       7.4447 /_   82.1    1.0341    12.470        3-1     12.712 /_  111.1    1.0194
M1069189 ........... 1       7.4291 /_  -40.2    1.0319    12.470        1-2     12.878 /_  -10.5    1.0327
   -                 2       7.4054 /_ -160.6    1.0286    12.470        2-3     12.782 /_ -130.0     1.025
   -                 3       7.4359 /_   80.4    1.0328    12.470        3-1     12.913 /_  110.1    1.0355
L2860487 ........... 3       7.4358 /_   80.4    1.0328    12.470
221-312488 ......... 1        6.868 /_  -40.4   0.95394    12.470        1-2     12.125 /_  -10.5   0.97233
   -                 2       7.0613 /_ -161.5    0.9808    12.470        2-3     12.361 /_ -128.9   0.99127
   -                 3       7.4509 /_   81.8    1.0349    12.470        3-1     12.538 /_  109.4    1.0055
M1089183 ........... 1       6.8679 /_  -40.4   0.95394    12.470        1-2     12.125 /_  -10.5   0.97233
   -                 2       7.0613 /_ -161.5    0.9808    12.470        2-3     12.361 /_ -128.9   0.99127
   -                 3       7.4509 /_   81.8    1.0349    12.470        3-1     12.538 /_  109.4    1.0055
M1108464 ........... 2       7.0589 /_ -161.5   0.98047    12.470
L3102286 ........... 2       7.0584 /_ -161.5    0.9804    12.470
F739845 ............ 1       7.2216 /_  -40.7    1.0031    12.470        1-2     12.523 /_  -11.3    1.0043
   -                 2       7.1691 /_ -161.7   0.99577    12.470        2-3     12.521 /_ -130.3    1.0041
   -                 3       7.4098 /_   79.9    1.0292    12.470        3-1     12.714 /_  109.2    1.0196
293471 ............. 1       7.2216 /_  -40.7    1.0031    12.470        1-2     12.523 /_  -11.3    1.0042
   -                 2        7.169 /_ -161.7   0.99576    12.470        2-3     12.521 /_ -130.3    1.0041
   -                 3       7.4098 /_   79.9    1.0292    12.470        3-1     12.714 /_  109.2    1.0196
P827499 ............ 1        7.301 /_  -44.3    1.0141    12.470
N1139254 ........... 1        7.301 /_  -44.3    1.0141    12.470
M1026657 ........... 1       7.1778 /_  -44.7   0.99698    12.470
M1026656 ........... 1       7.1776 /_  -44.7   0.99695    12.470
M1108299 ........... 2       7.1793 /_ -159.4   0.99718    12.470
M1108300 ........... 2       7.1792 /_ -159.4   0.99718    12.470
L3198355 ........... 2       7.1789 /_ -159.4   0.99712    12.470
L2805037 ........... 2       7.1789 /_ -159.4   0.99712    12.470
N1137994 ........... 3       7.3722 /_   79.3     1.024    12.470
M1069484 ........... 3       7.3707 /_   79.3    1.0238    12.470
L2860504 ........... 1       7.1841 /_  -44.7   0.99785    12.470
L2860493 ........... 1       7.1834 /_  -44.7   0.99776    12.470
M1026783 ........... 1       7.2842 /_  -44.5    1.0118    12.470        1-2     12.813 /_  -15.1    1.0275
   -                 2       7.3821 /_ -166.2    1.0254    12.470        2-3     12.383 /_ -133.3   0.99304
   -                 3       7.3812 /_   79.7    1.0252    12.470        3-1     12.962 /_  107.4    1.0394
M1026780 ........... 1       7.2825 /_  -44.5    1.0115    12.470        1-2     12.811 /_  -15.1    1.0273
   -                 2       7.3819 /_ -166.2    1.0253    12.470        2-3     12.382 /_ -133.3   0.99296
   -                 3       7.3803 /_   79.7    1.0251    12.470        3-1      12.96 /_  107.4    1.0393
P895111 ............ 3       7.4642 /_   82.4    1.0368    12.470
L2895496 ........... 3       7.4639 /_   82.4    1.0367    12.470
N1140819 ........... 1       7.1928 /_  -44.6   0.99906    12.470        1-2     12.713 /_  -15.0    1.0195
   -                 2       7.3727 /_ -166.2     1.024    12.470        2-3     12.327 /_ -133.3   0.98851
   -                 3       7.3257 /_   79.8    1.0175    12.470        3-1     12.845 /_  107.3      1.03
M1026700 ........... 1       7.1916 /_  -44.6    0.9989    12.470        1-2     12.712 /_  -15.0    1.0194
   -                 2       7.3723 /_ -166.2     1.024    12.470        2-3     12.325 /_ -133.3   0.98841
   -                 3       7.3245 /_   79.8    1.0173    12.470        3-1     12.843 /_  107.3    1.0299
M1089173 ........... 3       7.2681 /_   81.3    1.0095    12.470
L2935551 ........... 3       7.2671 /_   81.3    1.0094    12.470
M1026344 ........... 1       7.1758 /_  -40.7    0.9967    12.470
M1026364 ........... 1       7.1755 /_  -40.7   0.99666    12.470
L2879070 ........... 1       7.3499 /_  -44.6    1.0209    12.470        1-2     12.898 /_  -15.4    1.0343
   -                 2       7.3994 /_ -166.5    1.0278    12.470        2-3     12.449 /_ -133.3   0.99831
   -                 3        7.459 /_   79.7     1.036    12.470        3-1     13.088 /_  107.3    1.0496
L3216345 ........... 1       7.3418 /_  -44.6    1.0198    12.470        1-2     12.888 /_  -15.5    1.0335
   -                 2       7.3968 /_ -166.5    1.0274    12.470        2-3     12.443 /_ -133.3   0.99784
   -                 3        7.457 /_   79.7    1.0358    12.470        3-1     13.082 /_  107.3    1.0491
M1069428 ........... 1       7.3044 /_  -44.3    1.0146    12.470        1-2     12.755 /_  -15.6    1.0229
   -                 2       7.2533 /_ -166.7    1.0075    12.470        2-3     12.263 /_ -133.5   0.98341
   -                 3        7.356 /_   79.1    1.0217    12.470        3-1     12.913 /_  107.3    1.0355
N1139257 ........... 2       7.2533 /_ -166.7    1.0075    12.470
L2991919 ........... 1       7.1718 /_  -40.7   0.99614    12.470
M1026361 ........... 1       7.1692 /_  -40.7   0.99579    12.470
N1147857 ........... 1       7.1961 /_  -44.9   0.99951    12.470
M1009742 ........... 1       7.1943 /_  -44.9   0.99927    12.470
Q14412 ............. 1       7.2634 /_  -40.8    1.0089    12.470        1-2     12.599 /_  -11.3    1.0104
   -                 2       7.2223 /_ -161.6    1.0032    12.470        2-3     12.583 /_ -130.4    1.0091
   -                 3       7.4222 /_   79.9    1.0309    12.470        3-1     12.762 /_  109.2    1.0234
M1047325 ........... 1       7.2608 /_  -40.8    1.0085    12.470        1-2     12.595 /_  -11.3      1.01
   -                 2       7.2197 /_ -161.6    1.0028    12.470        2-3      12.58 /_ -130.4    1.0088
   -                 3       7.4215 /_   79.9    1.0308    12.470        3-1     12.759 /_  109.2    1.0232
N1139263 ........... 1       7.3124 /_  -44.4    1.0157    12.470
L3048227 ........... 1       7.3123 /_  -44.4    1.0157    12.470
P827506 ............ 1       7.3124 /_  -44.4    1.0157    12.470
M1069469 ........... 1       7.3124 /_  -44.4    1.0157    12.470
M1027019 ........... 2       7.2887 /_ -167.0    1.0124    12.470
L2785522 ........... 2       7.2885 /_ -167.0    1.0124    12.470
L3216338 ........... 2       7.2292 /_ -167.2    1.0041    12.470
L2973146 ........... 2        7.229 /_ -167.2    1.0041    12.470
M3037452 ........... 1       7.1618 /_  -40.7   0.99475    12.470
L2973164 ........... 1       7.1617 /_  -40.7   0.99474    12.470
L3120376 ........... 1       7.2868 /_  -44.8    1.0121    12.470
M1026925 ........... 1       7.2851 /_  -44.8    1.0119    12.470
M1047612 ........... 3       7.4704 /_   79.7    1.0376    12.470
P828360 ............ 3       7.4704 /_   79.7    1.0376    12.470
M1089195 ........... 3       7.5081 /_   80.6    1.0429    12.470
L3141393 ........... 3       7.5079 /_   80.6    1.0428    12.470
M1026946 ........... 2       7.3049 /_ -167.0    1.0146    12.470
M1026940 ........... 2       7.3044 /_ -167.0    1.0146    12.470
M1047471 ........... 2       7.1084 /_ -167.1   0.98734    12.470
L3216349 ........... 2       7.1084 /_ -167.1   0.98733    12.470
M1047401 ........... 1       7.1276 /_  -44.8      0.99    12.470
L2748132 ........... 1       7.1275 /_  -44.8   0.98999    12.470
L3122820 ........... 1       7.1571 /_  -44.7    0.9941    12.470
L3141398 ........... 1        7.157 /_  -44.7   0.99409    12.470
M1108360 ........... 3       7.3415 /_   81.5    1.0197    12.470
L3048968 ........... 3       7.3413 /_   81.5    1.0197    12.470
L2801950 ........... 3       7.3977 /_   80.4    1.0275    12.470
M1069224 ........... 3        7.397 /_   80.4    1.0274    12.470
L2766746 ........... 3       7.3515 /_   79.5    1.0211    12.470
M1027073 ........... 3       7.3494 /_   79.5    1.0208    12.470
M1142873 ........... 3       7.4636 /_   82.4    1.0367    12.470
M1069181 ........... 1       7.3884 /_  -40.3    1.0262    12.470
L2973151 ........... 1       7.3868 /_  -40.3     1.026    12.470
L3179682 ........... 3       7.4234 /_   81.6    1.0311    12.470
L2786274 ........... 3       7.4233 /_   81.6    1.0311    12.470
L3066816 ........... 1       7.1821 /_  -44.7   0.99757    12.470
M1026667 ........... 1       7.1817 /_  -44.7   0.99751    12.470
M1108529 ........... 1       7.4242 /_  -41.7    1.0312    12.470        1-2     12.968 /_  -12.2    1.0399
   -                 2       7.4569 /_ -162.9    1.0357    12.470        2-3     12.679 /_ -130.7    1.0168
   -                 3       7.5043 /_   81.2    1.0423    12.470        3-1     13.112 /_  109.6    1.0515
M1108532 ........... 1       7.4218 /_  -41.7    1.0309    12.470        1-2     12.965 /_  -12.2    1.0397
   -                 2       7.4554 /_ -162.9    1.0355    12.470        2-3     12.677 /_ -130.8    1.0166
   -                 3       7.5044 /_   81.2    1.0423    12.470        3-1      13.11 /_  109.6    1.0514
L2766723 ........... 1       7.1832 /_  -44.7   0.99772    12.470
L3122822 ........... 1        7.183 /_  -44.7   0.99771    12.470
L2673312 ........... 1       7.1841 /_  -44.9   0.99785    12.470
L3235247 ........... 1       7.1839 /_  -44.9   0.99783    12.470
M1166391 ........... 3       7.3966 /_   84.8    1.0274    12.470
L3254873 ........... 3       7.3926 /_   84.8    1.0268    12.470
L2861157 ........... 3       7.4358 /_   84.9    1.0328    12.470
P901951 ............ 3       7.4321 /_   84.9    1.0323    12.470
M1047346 ........... 1       7.2868 /_  -40.8    1.0121    12.470        1-2     12.637 /_  -11.3    1.0134
   -                 2       7.2448 /_ -161.6    1.0063    12.470        2-3      12.61 /_ -130.4    1.0112
   -                 3       7.4277 /_   79.9    1.0317    12.470        3-1     12.786 /_  109.3    1.0254
M1047345 ........... 1        7.283 /_  -40.8    1.0116    12.470        1-2     12.631 /_  -11.3    1.0129
   -                 2       7.2416 /_ -161.6    1.0058    12.470        2-3     12.606 /_ -130.4    1.0109
   -                 3       7.4269 /_   79.9    1.0316    12.470        3-1     12.782 /_  109.2     1.025
L2989596 ........... 2       7.2967 /_ -165.2    1.0135    12.470
L2822873 ........... 2       7.2967 /_ -165.2    1.0135    12.470
M1108328 ........... 3       7.3998 /_   81.6    1.0278    12.470
L2875754 ........... 3       7.3997 /_   81.6    1.0278    12.470
L2786204 ........... 3       7.4979 /_   85.0    1.0414    12.470
M1209819 ........... 3       7.4936 /_   85.0    1.0408    12.470
P901972 ............ 1        7.194 /_  -44.9   0.99922    12.470
M1009726 ........... 1       7.1912 /_  -44.9   0.99884    12.470
M1047702 ........... 1       7.3531 /_  -44.3    1.0213    12.470
N1137001 ........... 1       7.3531 /_  -44.3    1.0213    12.470
L2767340 ........... 1       6.9268 /_  -40.2   0.96211    12.470        1-2     12.208 /_  -10.2     0.979
   -                 2       7.1068 /_ -161.1   0.98712    12.470        2-3     12.426 /_ -128.8   0.99648
   -                 3       7.4601 /_   81.8    1.0362    12.470        3-1     12.588 /_  109.6    1.0095
M3037449 ........... 1       6.9268 /_  -40.2   0.96211    12.470        1-2     12.208 /_  -10.2     0.979
   -                 2       7.1068 /_ -161.1   0.98712    12.470        2-3     12.426 /_ -128.8   0.99648
   -                 3       7.4601 /_   81.8    1.0362    12.470        3-1     12.588 /_  109.6    1.0095
M1047457 ........... 2       7.1163 /_ -167.1   0.98844    12.470
L2710546 ........... 2       7.1154 /_ -167.1   0.98831    12.470
L2674027 ........... 1       6.7668 /_  -41.5   0.93989    12.470        1-2      12.02 /_  -11.5   0.96391
   -                 2       7.0291 /_ -162.7   0.97633    12.470        2-3     12.287 /_ -129.6   0.98535
   -                 3       7.4582 /_   81.3    1.0359    12.470        3-1     12.494 /_  108.4     1.002
L2692633 ........... 1       6.7596 /_  -41.6   0.93889    12.470        1-2     12.011 /_  -11.6   0.96321
   -                 2       7.0251 /_ -162.8   0.97577    12.470        2-3     12.281 /_ -129.7   0.98481
   -                 3       7.4582 /_   81.3    1.0359    12.470        3-1      12.49 /_  108.3    1.0016
N1142108 ........... 1       7.1738 /_  -38.9   0.99643    12.470
L2674051 ........... 1       7.1738 /_  -38.9   0.99642    12.470
M1069135 ........... 1       7.3114 /_  -40.7    1.0155    12.470        1-2     12.675 /_  -11.2    1.0164
   -                 2        7.266 /_ -161.5    1.0092    12.470        2-3     12.637 /_ -130.4    1.0134
   -                 3       7.4344 /_   79.9    1.0326    12.470        3-1     12.812 /_  109.3    1.0274
R18242 ............. 1       7.3064 /_  -40.8    1.0148    12.470        1-2     12.668 /_  -11.3    1.0158
   -                 2        7.262 /_ -161.6    1.0087    12.470        2-3     12.633 /_ -130.4     1.013
   -                 3       7.4338 /_   79.9    1.0325    12.470        3-1     12.808 /_  109.3    1.0271
M1047534 ........... 1       7.4707 /_  -44.1    1.0377    12.470        1-2     13.071 /_  -15.1    1.0482
   -                 2       7.4796 /_ -166.1    1.0389    12.470        2-3     12.581 /_ -133.0    1.0089
   -                 3       7.5115 /_   79.8    1.0433    12.470        3-1     13.226 /_  107.8    1.0606
N1136663 ........... 1        7.449 /_  -44.2    1.0346    12.470        1-2     13.038 /_  -15.1    1.0456
   -                 2       7.4631 /_ -166.1    1.0366    12.470        2-3     12.555 /_ -133.1    1.0068
   -                 3       7.4998 /_   79.8    1.0417    12.470        3-1     13.198 /_  107.7    1.0584
M1108508 ........... 3       7.5051 /_   81.0    1.0424    12.470
L3097861 ........... 3       7.5051 /_   81.0    1.0424    12.470
M1069560 ........... 2       7.2927 /_ -165.2    1.0129    12.470
L2973153 ........... 1       7.3639 /_  -44.3    1.0228    12.470        1-2     12.883 /_  -15.4    1.0331
   -                 2       7.3528 /_ -166.5    1.0213    12.470        2-3     12.422 /_ -133.1   0.99616
   -                 3       7.4725 /_   79.7    1.0379    12.470        3-1     13.099 /_  107.4    1.0504
N1136998 ........... 1       7.3634 /_  -44.3    1.0228    12.470        1-2     12.881 /_  -15.4     1.033
   -                 2       7.3515 /_ -166.5    1.0211    12.470        2-3     12.421 /_ -133.1   0.99607
   -                 3       7.4727 /_   79.7    1.0379    12.470        3-1     13.098 /_  107.4    1.0504
L2898515 ........... 3       7.4896 /_   83.6    1.0403    12.470
M1166387 ........... 3       7.4894 /_   83.6    1.0403    12.470
M1047442 ........... 2       7.1465 /_ -167.0   0.99262    12.470
L3235250 ........... 2       7.1464 /_ -167.0   0.99261    12.470
M1142871 ........... 1       7.0983 /_  -38.9   0.98593    12.470        1-2     12.413 /_   -9.0   0.99542
   -                 2       7.1995 /_ -159.4   0.99999    12.470        2-3     12.581 /_ -127.9    1.0089
   -                 3       7.4645 /_   82.4    1.0368    12.470        3-1     12.697 /_  110.9    1.0182
M1142874 ........... 1        7.093 /_  -39.0    0.9852    12.470        1-2     12.406 /_   -9.0   0.99491
   -                 2       7.1965 /_ -159.5   0.99958    12.470        2-3     12.576 /_ -127.9    1.0085
   -                 3       7.4642 /_   82.4    1.0368    12.470        3-1     12.694 /_  110.9     1.018
L2955081 ........... 1       7.1743 /_  -38.9   0.99649    12.470        1-2     12.456 /_   -9.1   0.99887
   -                 2       7.1865 /_ -159.2   0.99819    12.470        2-3     12.596 /_ -128.2    1.0101
   -                 3       7.4259 /_   81.7    1.0314    12.470        3-1     12.684 /_  110.8    1.0172
M1108315 ........... 1       7.1747 /_  -39.0   0.99654    12.470        1-2     12.454 /_   -9.1   0.99869
   -                 2       7.1839 /_ -159.3   0.99782    12.470        2-3     12.593 /_ -128.3    1.0099
   -                 3       7.4236 /_   81.6    1.0311    12.470        3-1     12.681 /_  110.8    1.0169
L2973162 ........... 1       7.1759 /_  -40.7   0.99671    12.470        1-2     12.436 /_  -11.4   0.99725
   -                 2       7.1005 /_ -161.9   0.98625    12.470        2-3     12.457 /_ -130.2   0.99894
   -                 3        7.417 /_   80.0    1.0302    12.470        3-1      12.68 /_  109.1    1.0168
M1026333 ........... 1       7.1753 /_  -40.7   0.99663    12.470        1-2     12.433 /_  -11.5   0.99701
   -                 2       7.0968 /_ -161.9   0.98573    12.470        2-3     12.454 /_ -130.2    0.9987
   -                 3       7.4179 /_   80.0    1.0303    12.470        3-1      12.68 /_  109.1    1.0168
M1009832 ........... 2       7.2376 /_ -167.2    1.0053    12.470
L2860479 ........... 2       7.2376 /_ -167.2    1.0053    12.470
M1026854 ........... 1       7.3019 /_  -44.7    1.0142    12.470        1-2     12.838 /_  -15.5    1.0295
   -                 2       7.3808 /_ -166.7    1.0252    12.470        2-3     12.411 /_ -133.3   0.99528
   -                 3       7.4467 /_   79.7    1.0343    12.470        3-1     13.047 /_  107.2    1.0463
P901894 ............ 1       7.3017 /_  -44.7    1.0142    12.470
M1026485 ........... 2       7.2008 /_ -161.7    1.0002    12.470
M1026492 ........... 2       7.2005 /_ -161.7    1.0001    12.470
D6413567-3_INT ..... 1       7.4103 /_  -40.2    1.0293    12.470        1-2     12.849 /_  -10.5    1.0304
   -                 2       7.3893 /_ -160.8    1.0264    12.470        2-3     12.764 /_ -130.1    1.0235
   -                 3       7.4344 /_   80.4    1.0326    12.470        3-1     12.897 /_  110.0    1.0342
E182724 ............ 1       7.4102 /_  -40.2    1.0293    12.470        1-2     12.849 /_  -10.5    1.0304
   -                 2       7.3893 /_ -160.8    1.0264    12.470        2-3     12.763 /_ -130.1    1.0235
   -                 3       7.4344 /_   80.4    1.0326    12.470        3-1     12.897 /_  110.0    1.0342
N1139541 ........... 1       7.4122 /_  -40.2    1.0295    12.470        1-2     12.852 /_  -10.5    1.0307
   -                 2        7.391 /_ -160.7    1.0266    12.470        2-3     12.765 /_ -130.1    1.0237
   -                 3       7.4345 /_   80.4    1.0326    12.470        3-1     12.898 /_  110.0    1.0343
M4122658 ........... 1       6.8524 /_  -40.8   0.95178    12.470        1-2     12.122 /_  -10.8   0.97206
   -                 2       7.0724 /_ -161.8   0.98234    12.470        2-3     12.363 /_ -129.2   0.99145
   -                 3       7.4595 /_   81.6    1.0361    12.470        3-1     12.546 /_  109.1    1.0061
L2933135 ........... 1       6.8522 /_  -40.8   0.95176    12.470        1-2     12.121 /_  -10.8   0.97205
   -                 2       7.0723 /_ -161.8   0.98233    12.470        2-3     12.363 /_ -129.2   0.99143
   -                 3       7.4595 /_   81.6    1.0361    12.470        3-1     12.545 /_  109.1     1.006
L2729414 ........... 1       7.2122 /_  -44.6    1.0018    12.470        1-2     12.735 /_  -15.1    1.0213
   -                 2       7.3753 /_ -166.2    1.0244    12.470        2-3     12.341 /_ -133.3   0.98964
   -                 3       7.3399 /_   79.8    1.0195    12.470        3-1     12.872 /_  107.3    1.0322
L2729430 ........... 2       7.2747 /_ -167.1    1.0104    12.470
L2766742 ........... 2       7.2677 /_ -167.1    1.0095    12.470
M1026972 ........... 2       7.1503 /_ -166.9   0.99316    12.470
L2860483 ........... 2       7.1501 /_ -166.9   0.99313    12.470
L2860490 ........... 1       7.2964 /_  -40.8    1.0135    12.470        1-2     12.652 /_  -11.3    1.0146
   -                 2       7.2534 /_ -161.6    1.0075    12.470        2-3     12.621 /_ -130.4    1.0121
   -                 3       7.4307 /_   79.9    1.0321    12.470        3-1     12.797 /_  109.3    1.0262
L3104134 ........... 1       7.2909 /_  -40.8    1.0127    12.470        1-2     12.643 /_  -11.3    1.0139
   -                 2       7.2484 /_ -161.6    1.0068    12.470        2-3     12.615 /_ -130.4    1.0116
   -                 3       7.4289 /_   79.9    1.0319    12.470        3-1      12.79 /_  109.3    1.0257
M1089144 ........... 1       7.0359 /_  -39.6   0.97727    12.470
P827522 ............ 1       7.0359 /_  -39.6   0.97727    12.470
M1089118 ........... 1         7.47 /_  -40.0    1.0376    12.470        1-2     12.949 /_  -10.3    1.0384
   -                 2       7.4482 /_ -160.4    1.0345    12.470        2-3     12.845 /_ -129.9    1.0301
   -                 3       7.4645 /_   80.6    1.0368    12.470        3-1     12.974 /_  110.3    1.0404
L3048208 ........... 1         7.47 /_  -40.0    1.0376    12.470
M1108505 ........... 1        6.786 /_  -41.4   0.94256    12.470        1-2     12.043 /_  -11.3   0.96576
   -                 2       7.0401 /_ -162.5   0.97785    12.470        2-3     12.305 /_ -129.5    0.9868
   -                 3       7.4582 /_   81.4    1.0359    12.470        3-1     12.506 /_  108.5    1.0029
L2955047 ........... 1       6.7801 /_  -41.4   0.94174    12.470        1-2     12.036 /_  -11.4   0.96519
   -                 2       7.0368 /_ -162.6   0.97739    12.470        2-3       12.3 /_ -129.6   0.98636
   -                 3       7.4582 /_   81.4    1.0359    12.470        3-1     12.503 /_  108.5    1.0026
M1089148 ........... 1        7.033 /_  -39.6   0.97686    12.470
L2766721 ........... 1       7.0329 /_  -39.6   0.97685    12.470
M1026745 ........... 2       7.1047 /_ -167.1   0.98682    12.470
L3029183 ........... 2       7.1046 /_ -167.1    0.9868    12.470
L2710512 ........... 2       7.1215 /_ -167.0   0.98916    12.470
M1047828 ........... 2       7.1171 /_ -167.0   0.98854    12.470
M1047342 ........... 1       7.2825 /_  -40.8    1.0115    12.470
L3197645 ........... 1       7.2823 /_  -40.8    1.0115    12.470
M1069192 ........... 1       7.3931 /_  -40.3    1.0269    12.470
L3235253 ........... 1        7.393 /_  -40.3    1.0269    12.470
L3214071 ........... 1       7.0174 /_  -39.5    0.9747    12.470        1-2     12.315 /_   -9.6   0.98757
   -                 2       7.1541 /_ -160.2   0.99368    12.470        2-3     12.507 /_ -128.3     1.003
   -                 3       7.4614 /_   82.1    1.0364    12.470        3-1     12.644 /_  110.3    1.0139
M1125952 ........... 1         7.01 /_  -39.6   0.97368    12.470        1-2     12.306 /_   -9.6   0.98685
   -                 2       7.1499 /_ -160.3   0.99311    12.470        2-3       12.5 /_ -128.4    1.0024
   -                 3       7.4612 /_   82.1    1.0363    12.470        3-1     12.639 /_  110.3    1.0136
M1027101 ........... 2        7.118 /_ -167.0   0.98868    12.470
L2860480 ........... 2       7.1177 /_ -167.0   0.98863    12.470
L2710517 ........... 1       7.1591 /_  -44.7   0.99438    12.470
M1026646 ........... 1       7.1576 /_  -44.7   0.99418    12.470
M1069662 ........... 2       7.2498 /_ -165.3     1.007    12.470
L2935547 ........... 2       7.2498 /_ -165.3     1.007    12.470
M1026931 ........... 1       7.2802 /_  -44.8    1.0112    12.470
L3216336 ........... 1       7.2797 /_  -44.8    1.0111    12.470
L3142049 ........... 1       6.8181 /_  -41.1   0.94701    12.470        1-2     12.081 /_  -11.1    0.9688
   -                 2       7.0558 /_ -162.2   0.98003    12.470        2-3     12.333 /_ -129.4   0.98905
   -                 3       7.4586 /_   81.5     1.036    12.470        3-1     12.525 /_  108.8    1.0044
M1108493 ........... 1       6.8083 /_  -41.2   0.94566    12.470        1-2     12.069 /_  -11.2   0.96787
   -                 2        7.051 /_ -162.3   0.97937    12.470        2-3     12.325 /_ -129.4   0.98836
   -                 3       7.4585 /_   81.5     1.036    12.470        3-1     12.519 /_  108.7     1.004
M1069169 ........... 1       7.3982 /_  -40.3    1.0276    12.470        1-2     12.831 /_  -10.6     1.029
   -                 2       7.3791 /_ -160.8    1.0249    12.470        2-3     12.752 /_ -130.1    1.0226
   -                 3       7.4334 /_   80.3    1.0325    12.470        3-1     12.886 /_  109.9    1.0334
L3010556 ........... 1       7.3914 /_  -40.3    1.0266    12.470        1-2     12.819 /_  -10.6     1.028
   -                 2       7.3704 /_ -160.9    1.0237    12.470        2-3     12.743 /_ -130.1    1.0219
   -                 3        7.433 /_   80.3    1.0324    12.470        3-1      12.88 /_  109.9    1.0329
L2991933 ........... 3       7.4189 /_   79.6    1.0305    12.470
L3122837 ........... 3       7.4182 /_   79.6    1.0304    12.470
L2691936 ........... 1       7.2792 /_  -44.8    1.0111    12.470
L2897772 ........... 1       7.2326 /_  -40.8    1.0046    12.470
L3101814 ........... 1       7.2326 /_  -40.8    1.0046    12.470
L2766732 ........... 2        7.201 /_ -161.7    1.0002    12.470
L2989564 ........... 2       7.2501 /_ -165.3     1.007    12.470
M1126016 ........... 1       6.7708 /_  -41.4   0.94044    12.470
L3120534 ........... 1       6.7704 /_  -41.4   0.94039    12.470
M1026330 ........... 1       7.1744 /_  -40.7    0.9965    12.470        1-2     12.427 /_  -11.5   0.99657
   -                 2       7.0895 /_ -161.9   0.98471    12.470        2-3     12.448 /_ -130.2   0.99826
   -                 3       7.4197 /_   80.0    1.0306    12.470        3-1      12.68 /_  109.1    1.0168
L2766726 ........... 2       7.0894 /_ -161.9    0.9847    12.470
P901912 ............ 2       7.3746 /_ -166.3    1.0243    12.470
L3195365 ........... 2       7.3746 /_ -166.3    1.0243    12.470
M1108381 ........... 1       6.8713 /_  -40.4   0.95441    12.470        1-2     12.131 /_  -10.5   0.97279
   -                 2       7.0648 /_ -161.5   0.98128    12.470        2-3     12.366 /_ -128.9    0.9917
   -                 3       7.4536 /_   81.8    1.0353    12.470        3-1     12.544 /_  109.4    1.0059
L3254237 ........... 1       6.8701 /_  -40.4   0.95424    12.470        1-2     12.129 /_  -10.5   0.97266
   -                 2        7.064 /_ -161.5   0.98117    12.470        2-3     12.365 /_ -128.9    0.9916
   -                 3       7.4529 /_   81.8    1.0352    12.470        3-1     12.542 /_  109.4    1.0058
L2804262 ........... 1       7.2992 /_  -44.8    1.0138    12.470
L2841639 ........... 1       7.2968 /_  -44.8    1.0135    12.470
N1230123 ........... 2       7.0714 /_ -161.5   0.98221    12.470
L2708744 ........... 2       7.0698 /_ -161.5   0.98198    12.470
M1069519 ........... 1       7.2344 /_  -43.1    1.0048    12.470        1-2     12.746 /_  -13.9    1.0222
   -                 2       7.3375 /_ -165.1    1.0192    12.470        2-3     12.499 /_ -131.9    1.0023
   -                 3       7.5177 /_   80.3    1.0442    12.470        3-1      12.99 /_  108.0    1.0417
P901927 ............ 2       7.3375 /_ -165.1    1.0192    12.470
L2897790 ........... 3       7.5219 /_   80.3    1.0448    12.470
L2935566 ........... 3       7.5218 /_   80.3    1.0448    12.470
L3216337 ........... 1       7.2802 /_  -44.8    1.0112    12.470
P901931 ............ 3       7.5222 /_   80.3    1.0448    12.470
M1069548 ........... 3       7.5222 /_   80.3    1.0448    12.470
M1010013 ........... 1       7.1072 /_  -45.1   0.98717    12.470
L3120503 ........... 1       7.1071 /_  -45.1   0.98716    12.470
M1089145 ........... 1       7.0357 /_  -39.6   0.97724    12.470        1-2     12.208 /_   -9.8   0.97899
   -                 2       7.0331 /_ -160.0   0.97688    12.470        2-3     12.362 /_ -128.8   0.99138
   -                 3       7.3153 /_   81.1    1.0161    12.470        3-1     12.468 /_  110.1   0.99986
L3215385 ........... 1       7.0356 /_  -39.6   0.97723    12.470        1-2     12.208 /_   -9.8   0.97898
   -                 2        7.033 /_ -160.0   0.97686    12.470        2-3     12.362 /_ -128.8   0.99137
   -                 3       7.3153 /_   81.1    1.0161    12.470        3-1     12.468 /_  110.1   0.99985
M1026852 ........... 1       7.2939 /_  -44.8    1.0131    12.470        1-2     12.827 /_  -15.6    1.0286
   -                 2       7.3754 /_ -166.7    1.0244    12.470        2-3     12.403 /_ -133.4   0.99461
   -                 3       7.4445 /_   79.7     1.034    12.470        3-1     13.039 /_  107.1    1.0456
M1069420 ........... 1       7.3011 /_  -44.3    1.0141    12.470        1-2     12.745 /_  -15.7    1.0221
   -                 2       7.2413 /_ -166.8    1.0058    12.470        2-3      12.25 /_ -133.6   0.98234
   -                 3       7.3523 /_   79.1    1.0212    12.470        3-1     12.904 /_  107.3    1.0348
L3157708 ........... 3       7.4308 /_   79.7    1.0321    12.470
N1137991 ........... 3       7.4308 /_   79.7    1.0321    12.470
M1108413 ........... 1       6.8761 /_  -40.5   0.95507    12.470
M1108460 ........... 1       6.8737 /_  -40.5   0.95473    12.470
P827532 ............ 1       7.2608 /_  -40.8    1.0085    12.470
M1047326 ........... 1       7.2608 /_  -40.8    1.0085    12.470
E182732 ............ 1       7.2501 /_  -44.5     1.007    12.470        1-2     12.776 /_  -15.1    1.0245
   -                 2       7.3787 /_ -166.2    1.0249    12.470        2-3     12.363 /_ -133.3   0.99144
   -                 3       7.3621 /_   79.8    1.0226    12.470        3-1      12.92 /_  107.4    1.0361
M1026760 ........... 1       7.2492 /_  -44.5    1.0069    12.470        1-2     12.775 /_  -15.1    1.0244
   -                 2       7.3786 /_ -166.2    1.0249    12.470        2-3     12.363 /_ -133.3    0.9914
   -                 3       7.3616 /_   79.8    1.0225    12.470        3-1     12.919 /_  107.4     1.036
L3048205 ........... 3        7.331 /_   81.5    1.0183    12.470
M1108361 ........... 3        7.318 /_   81.4    1.0164    12.470
M3036169 ........... 1       7.1623 /_  -44.7   0.99482    12.470
L2673317 ........... 1       7.1622 /_  -44.7   0.99481    12.470
L3178981 ........... 2       7.2593 /_ -161.5    1.0083    12.470
M1047368 ........... 2       7.2474 /_ -161.6    1.0066    12.470
N1136354 ........... 1       7.2329 /_  -43.1    1.0046    12.470        1-2     12.745 /_  -13.9    1.0221
   -                 2       7.3339 /_ -165.1    1.0187    12.470        2-3     12.496 /_ -131.9    1.0021
   -                 3       7.5203 /_   80.3    1.0446    12.470        3-1      12.99 /_  108.0    1.0417
L2879794 ........... 1       7.1686 /_  -38.6    0.9957    12.470
M1142811 ........... 1       7.1683 /_  -38.6   0.99566    12.470
M1069565 ........... 2       7.2969 /_ -165.2    1.0135    12.470
L2785536 ........... 2       7.2966 /_ -165.2    1.0135    12.470
L3104114 ........... 2       7.2525 /_ -167.1    1.0074    12.470
M1009824 ........... 2       7.2494 /_ -167.1    1.0069    12.470
L2745848 ........... 1       7.3175 /_  -44.4    1.0164    12.470        1-2     12.795 /_  -15.5    1.0261
   -                 2       7.3013 /_ -166.5    1.0141    12.470        2-3     12.317 /_ -133.4   0.98771
   -                 3       7.3719 /_   79.3    1.0239    12.470        3-1     12.952 /_  107.4    1.0386
L2673308 ........... 1       7.3165 /_  -44.4    1.0162    12.470        1-2     12.793 /_  -15.5    1.0259
   -                 2        7.298 /_ -166.5    1.0137    12.470        2-3     12.313 /_ -133.4   0.98741
   -                 3       7.3709 /_   79.3    1.0238    12.470        3-1     12.949 /_  107.3    1.0384
L2991939 ........... 1       7.3146 /_  -44.4     1.016    12.470        1-2     12.787 /_  -15.5    1.0254
   -                 2       7.2917 /_ -166.6    1.0128    12.470        2-3     12.306 /_ -133.4   0.98684
   -                 3        7.369 /_   79.3    1.0235    12.470        3-1     12.944 /_  107.3     1.038
L2916606 ........... 3       7.3506 /_   81.5     1.021    12.470
L2822864 ........... 3       7.3505 /_   81.5     1.021    12.470
M1142851 ........... 1       7.1575 /_  -38.5   0.99416    12.470        1-2     12.486 /_   -8.5    1.0013
   -                 2       7.2337 /_ -158.9    1.0047    12.470        2-3     12.636 /_ -127.6    1.0133
   -                 3       7.4682 /_   82.6    1.0373    12.470        3-1     12.739 /_  111.4    1.0215
196-31070 .......... 1       7.1556 /_  -38.5    0.9939    12.470        1-2     12.484 /_   -8.5    1.0011
   -                 2       7.2326 /_ -158.9    1.0046    12.470        2-3     12.634 /_ -127.6    1.0132
   -                 3       7.4681 /_   82.6    1.0373    12.470        3-1     12.737 /_  111.4    1.0214
M1209822 ........... 3       7.4551 /_   84.9    1.0355    12.470
M1209823 ........... 3       7.4518 /_   84.9     1.035    12.470
M1069550 ........... 2       7.3011 /_ -165.2    1.0141    12.470
M1069551 ........... 2       7.3007 /_ -165.2    1.0141    12.470
L3141397 ........... 2         7.15 /_ -166.9   0.99311    12.470
L3649299 ........... 1       7.3316 /_  -44.6    1.0183    12.470
M3772794 ........... 1       7.3315 /_  -44.6    1.0183    12.470
P895106 ............ 2       7.1189 /_ -160.9   0.98879    12.470
L3048887 ........... 2       7.1184 /_ -160.9   0.98873    12.470
M1047824 ........... 2       7.1241 /_ -167.0   0.98952    12.470
M1047834 ........... 2       7.1197 /_ -167.0   0.98891    12.470
M1069350 ........... 1       7.2981 /_  -44.3    1.0137    12.470        1-2      12.72 /_  -15.8      1.02
   -                 2       7.2082 /_ -166.8    1.0012    12.470        2-3     12.212 /_ -133.7   0.97928
   -                 3       7.3315 /_   78.9    1.0183    12.470        3-1      12.87 /_  107.2    1.0321
N1144668 ........... 1       7.2983 /_  -44.3    1.0137    12.470        1-2     12.719 /_  -15.8      1.02
   -                 2        7.208 /_ -166.8    1.0012    12.470        2-3     12.211 /_ -133.7   0.97926
   -                 3       7.3306 /_   78.9    1.0182    12.470        3-1     12.869 /_  107.2     1.032
L2879072 ........... 2       7.1633 /_ -167.0   0.99497    12.470
M1047441 ........... 2       7.1489 /_ -167.0   0.99297    12.470
M1108274 ........... 2       7.4372 /_ -160.4     1.033    12.470
M1108269 ........... 2       7.4371 /_ -160.4     1.033    12.470
L3235244 ........... 1       7.2896 /_  -44.3    1.0125    12.470
M1069398 ........... 1       7.2892 /_  -44.3    1.0125    12.470
N1147862 ........... 1       7.2293 /_  -44.9    1.0041    12.470
L2685805 ........... 1       7.2291 /_  -44.9    1.0041    12.470
M1069247 ........... 1       7.2985 /_  -44.3    1.0137    12.470
M1069248 ........... 1       7.2983 /_  -44.3    1.0137    12.470
L2786273 ........... 2       7.4365 /_ -160.4    1.0329    12.470
M1108278 ........... 2        7.436 /_ -160.4    1.0328    12.470
L3254238 ........... 1       7.2267 /_  -40.8    1.0038    12.470        1-2     12.533 /_  -11.3    1.0051
   -                 2       7.1768 /_ -161.7   0.99684    12.470        2-3     12.529 /_ -130.3    1.0048
   -                 3       7.4114 /_   79.9    1.0294    12.470        3-1      12.72 /_  109.2    1.0201
M1047303 ........... 1       7.2217 /_  -40.7    1.0031    12.470        1-2     12.523 /_  -11.3    1.0043
   -                 2       7.1692 /_ -161.7   0.99578    12.470        2-3     12.521 /_ -130.3    1.0041
   -                 3       7.4099 /_   79.9    1.0292    12.470        3-1     12.714 /_  109.2    1.0196
M1047633 ........... 3        7.468 /_   79.6    1.0373    12.470
L2897554 ........... 3       7.4674 /_   79.6    1.0372    12.470
M1069627 ........... 2       7.2484 /_ -165.3    1.0068    12.470
L2897791 ........... 2       7.2469 /_ -165.3    1.0066    12.470
M1089097 ........... 2       7.4411 /_ -160.4    1.0335    12.470
M1108270 ........... 2       7.4401 /_ -160.4    1.0334    12.470
N1142101 ........... 1       6.8231 /_  -41.0   0.94771    12.470
L2936214 ........... 1        6.823 /_  -41.0    0.9477    12.470
L3066810 ........... 3       7.3574 /_   79.2    1.0219    12.470
L2897769 ........... 3       7.3564 /_   79.2    1.0218    12.470
M1209758 ........... 2       7.3856 /_ -156.4    1.0258    12.470
M1209753 ........... 2       7.3851 /_ -156.5    1.0258    12.470
M1047528 ........... 1       7.4118 /_  -44.3    1.0295    12.470        1-2     12.982 /_  -15.3    1.0411
   -                 2       7.4337 /_ -166.3    1.0325    12.470        2-3     12.509 /_ -133.2    1.0031
   -                 3       7.4818 /_   79.7    1.0392    12.470        3-1     13.153 /_  107.5    1.0547
L2858166 ........... 1       7.4113 /_  -44.3    1.0294    12.470        1-2     12.981 /_  -15.3     1.041
   -                 2       7.4333 /_ -166.3    1.0325    12.470        2-3     12.509 /_ -133.2    1.0031
   -                 3       7.4817 /_   79.7    1.0392    12.470        3-1     13.152 /_  107.5    1.0547
M1142843 ........... 1       7.1763 /_  -38.4   0.99677    12.470        1-2     12.509 /_   -8.4    1.0031
   -                 2       7.2445 /_ -158.7    1.0062    12.470        2-3     12.653 /_ -127.5    1.0147
   -                 3       7.4696 /_   82.7    1.0375    12.470        3-1     12.752 /_  111.5    1.0226
L3081380 ........... 1       7.1759 /_  -38.4   0.99672    12.470        1-2     12.506 /_   -8.4    1.0029
   -                 2       7.2407 /_ -158.7    1.0057    12.470        2-3     12.649 /_ -127.5    1.0144
   -                 3       7.4667 /_   82.6    1.0371    12.470        3-1     12.747 /_  111.5    1.0222
L2804272 ........... 2       7.3003 /_ -165.2     1.014    12.470
L2841641 ........... 2       7.3002 /_ -165.2     1.014    12.470
M1069393 ........... 2       7.1875 /_ -166.9   0.99833    12.470
M1069408 ........... 2       7.1824 /_ -166.9   0.99762    12.470
N1142104 ........... 1       6.7942 /_  -41.3   0.94369    12.470        1-2     12.053 /_  -11.3   0.96653
   -                 2       7.0441 /_ -162.4   0.97841    12.470        2-3     12.313 /_ -129.5   0.98737
   -                 3       7.4583 /_   81.4    1.0359    12.470        3-1     12.511 /_  108.6    1.0033
M1108500 ........... 1       6.7889 /_  -41.3   0.94297    12.470        1-2     12.046 /_  -11.3   0.96604
   -                 2       7.0415 /_ -162.5   0.97805    12.470        2-3     12.308 /_ -129.5     0.987
   -                 3       7.4582 /_   81.4    1.0359    12.470        3-1     12.508 /_  108.6     1.003
L3216348 ........... 1       7.1302 /_  -44.8   0.99036    12.470
L2841627 ........... 1       7.1285 /_  -44.8   0.99014    12.470
L2916599 ........... 1        7.285 /_  -44.8    1.0119    12.470
M1047447 ........... 2       7.1335 /_ -167.0   0.99083    12.470
L2954349 ........... 2       7.1334 /_ -167.0   0.99081    12.470
L3235246 ........... 2        7.124 /_ -167.0   0.98951    12.470
M1125911 ........... 2       7.1981 /_ -159.1    0.9998    12.470
L2711224 ........... 2       7.1967 /_ -159.1    0.9996    12.470
N1147863 ........... 3       7.4286 /_   79.6    1.0318    12.470
L3122817 ........... 3       7.4286 /_   79.6    1.0318    12.470
M1186061 ........... 1       7.3645 /_  -36.4    1.0229    12.470        1-2     12.777 /_   -6.4    1.0246
   -                 2       7.3872 /_ -156.4    1.0261    12.470        2-3     12.855 /_ -125.8    1.0308
   -                 3       7.5077 /_   84.2    1.0428    12.470        3-1     12.923 /_  113.6    1.0363
L2861223 ........... 2       7.3872 /_ -156.4    1.0261    12.470
M1069130 ........... 1         7.31 /_  -40.7    1.0153    12.470
L3085396 ........... 1       7.3097 /_  -40.7    1.0153    12.470
E182730 ............ 1       7.2604 /_  -44.5    1.0085    12.470
N1142109 ........... 1       7.2603 /_  -44.5    1.0084    12.470
M1069417 ........... 1       7.2969 /_  -44.3    1.0135    12.470        1-2     12.731 /_  -15.7     1.021
   -                 2       7.2241 /_ -166.8    1.0034    12.470        2-3     12.231 /_ -133.6   0.98083
   -                 3       7.3469 /_   79.0    1.0205    12.470        3-1      12.89 /_  107.2    1.0337
N1138597 ........... 1       7.2966 /_  -44.3    1.0135    12.470        1-2      12.73 /_  -15.7    1.0209
   -                 2       7.2227 /_ -166.8    1.0032    12.470        2-3     12.229 /_ -133.6    0.9807
   -                 3       7.3464 /_   79.0    1.0204    12.470        3-1     12.889 /_  107.2    1.0336
M1026987 ........... 2       7.1432 /_ -166.9   0.99217    12.470
M1026990 ........... 2       7.1417 /_ -166.9   0.99196    12.470
M1142832 ........... 1       7.1752 /_  -38.5   0.99662    12.470        1-2     12.498 /_   -8.5    1.0022
   -                 2       7.2328 /_ -158.8    1.0046    12.470        2-3     12.641 /_ -127.6    1.0137
   -                 3       7.4606 /_   82.5    1.0363    12.470        3-1     12.738 /_  111.4    1.0215
L3160865 ........... 1       7.1749 /_  -38.5   0.99657    12.470        1-2     12.496 /_   -8.5    1.0021
   -                 2       7.2305 /_ -158.8    1.0043    12.470        2-3     12.639 /_ -127.7    1.0135
   -                 3       7.4591 /_   82.5     1.036    12.470        3-1     12.735 /_  111.3    1.0213
L2673323 ........... 3       7.4185 /_   79.6    1.0304    12.470
M1009809 ........... 3       7.4183 /_   79.6    1.0304    12.470
L2822869 ........... 1       7.3222 /_  -44.4     1.017    12.470        1-2     12.854 /_  -15.2    1.0308
   -                 2       7.3849 /_ -166.3    1.0257    12.470        2-3     12.405 /_ -133.2   0.99482
   -                 3       7.4039 /_   79.7    1.0284    12.470        3-1      13.01 /_  107.5    1.0433
M1026808 ........... 1       7.3128 /_  -44.4    1.0157    12.470        1-2     12.843 /_  -15.2    1.0299
   -                 2        7.384 /_ -166.2    1.0256    12.470        2-3     12.399 /_ -133.2   0.99434
   -                 3       7.3978 /_   79.7    1.0275    12.470        3-1     12.997 /_  107.5    1.0423
M1047825 ........... 2       7.1098 /_ -167.0   0.98753    12.470
M1069731 ........... 2       7.1082 /_ -167.0   0.98731    12.470
N1140520 ........... 3       7.3978 /_   79.7    1.0275    12.470
L2729410 ........... 3       7.3977 /_   79.7    1.0275    12.470
L3178978 ........... 1       7.1528 /_  -44.7   0.99351    12.470
M1069384 ........... 1        7.291 /_  -44.3    1.0127    12.470
L3066805 ........... 1       7.2909 /_  -44.3    1.0127    12.470
M4362181 ........... 2       7.1149 /_ -167.1   0.98824    12.470
M1047319 ........... 3       7.4047 /_   79.9    1.0285    12.470
M1047318 ........... 3       7.4043 /_   79.9    1.0284    12.470
L3216358 ........... 1       7.2725 /_  -44.8    1.0101    12.470
M1026826 ........... 1       7.2712 /_  -44.8    1.0099    12.470
M1108276 ........... 2       7.4368 /_ -160.4     1.033    12.470
M1089198 ........... 1       7.3354 /_  -42.3    1.0189    12.470        1-2     12.862 /_  -13.0    1.0315
   -                 2        7.403 /_ -163.9    1.0283    12.470        2-3     12.596 /_ -131.3    1.0101
   -                 3       7.5068 /_   80.8    1.0427    12.470        3-1     13.053 /_  108.9    1.0467
M1089201 ........... 1       7.3188 /_  -42.5    1.0166    12.470        1-2     12.843 /_  -13.1    1.0299
   -                 2       7.3929 /_ -164.1    1.0269    12.470        2-3     12.581 /_ -131.4    1.0089
   -                 3       7.5075 /_   80.7    1.0428    12.470        3-1     13.042 /_  108.7    1.0459
M1047763 ........... 1       7.3123 /_  -44.1    1.0157    12.470        1-2     12.724 /_  -15.7    1.0204
   -                 2       7.1828 /_ -166.8   0.99767    12.470        2-3     12.287 /_ -132.8    0.9853
   -                 3       7.5071 /_   79.6    1.0427    12.470        3-1     13.069 /_  107.4    1.0481
N1136027 ........... 1       7.3121 /_  -44.1    1.0156    12.470
L3101827 ........... 3       7.5014 /_   81.2    1.0419    12.470
M1108540 ........... 3       7.4984 /_   81.2    1.0415    12.470
M1026335 ........... 1       7.1752 /_  -40.7   0.99662    12.470
L2804259 ........... 1       7.1751 /_  -40.7   0.99661    12.470
N1136357 ........... 3       7.5221 /_   80.3    1.0448    12.470
M1047513 ........... 1       7.3599 /_  -44.4    1.0223    12.470        1-2     12.901 /_  -15.2    1.0345
   -                 2       7.3967 /_ -166.3    1.0274    12.470        2-3     12.438 /_ -133.2   0.99746
   -                 3       7.4309 /_   79.7    1.0321    12.470        3-1     13.063 /_  107.5    1.0475
M1047507 ........... 1       7.3463 /_  -44.4    1.0204    12.470        1-2     12.879 /_  -15.2    1.0328
   -                 2       7.3869 /_ -166.3     1.026    12.470        2-3      12.42 /_ -133.2   0.99602
   -                 3       7.4192 /_   79.7    1.0305    12.470        3-1     13.041 /_  107.5    1.0458
M1142863 ........... 1       7.1372 /_  -38.7   0.99134    12.470        1-2     12.461 /_   -8.7   0.99926
   -                 2        7.222 /_ -159.1    1.0031    12.470        2-3     12.617 /_ -127.7    1.0118
   -                 3       7.4666 /_   82.5    1.0371    12.470        3-1     12.724 /_  111.2    1.0204
N1141480 ........... 3       7.4666 /_   82.5    1.0371    12.470
M1125916 ........... 2       7.1994 /_ -159.1   0.99998    12.470
L2879767 ........... 2       7.1993 /_ -159.1   0.99996    12.470
...